/*--------------------------------*- C++ -*----------------------------------*\
| =========                 |                                                 |
| \\      /  F ield         | OpenFOAM: The Open Source CFD Toolbox           |
|  \\    /   O peration     | Version:  v2306                                 |
|   \\  /    A nd           | Website:  www.openfoam.com                      |
|    \\/     M anipulation  |                                                 |
\*---------------------------------------------------------------------------*/
FoamFile
{
    version     2.0;
    format      ascii;
    class       volScalarField;
    object      epsilon;
}
// * * * * * * * * * * * * * * * * * * * * * * * * * * * * * * * * * * * * * //

dimensions      [0 2 -3 0 0 0 0];

internalField   uniform 0.01;

boundaryField
{
    Zmin
    {
        type            epsilonWallFunction;
        value           uniform 0.01;
    }

    Zmax
    {
        // type            epsilonWallFunction;
        // value           uniform 0.01;
        type                inletOutlet;
        inletValue          $internalField;
        value               $internalField;
    }

    "(Xmin|Xmax|Ymin|Ymax)"
    {
        type            epsilonWallFunction;
        value           uniform 0.01;
    }

    ball
    {
        type            epsilonWallFunction;
        value           uniform 0.01;
    }
}


// ************************************************************************* //
