/*--------------------------------*- C++ -*----------------------------------*\
| =========                 |                                                 |
| \\      /  F ield         | OpenFOAM: The Open Source CFD Toolbox           |
|  \\    /   O peration     | Version:  v2306                                 |
|   \\  /    A nd           | Website:  www.openfoam.com                      |
|    \\/     M anipulation  |                                                 |
\*---------------------------------------------------------------------------*/
FoamFile
{
    version     2.0;
    format      ascii;
    class       volScalarField;
    object      T;
}
// * * * * * * * * * * * * * * * * * * * * * * * * * * * * * * * * * * * * * //

dimensions      [0 0 0 1 0 0 0];

internalField   uniform 293;

boundaryField
{
    Zmin
    {
        type            fixedValue;
        value           uniform 293.0;
    }

    Zmax
    {
//        type            fixedValue;
//        value           uniform 300.0;
        type            inletOutlet;
        inletValue      uniform 293;
        value           uniform 293;

    }

    "(Xmin|Xmax|Ymin|Ymax)"
    {
        type            zeroGradient;
    }

    ball
    {
        type            fixedValue;
        value           uniform 330.0;
    }
}


// ************************************************************************* //
