/*--------------------------------*- C++ -*----------------------------------*\
| =========                 |                                                 |
| \\      /  F ield         | OpenFOAM: The Open Source CFD Toolbox           |
|  \\    /   O peration     | Version:  v2306                                 |
|   \\  /    A nd           | Website:  www.openfoam.com                      |
|    \\/     M anipulation  |                                                 |
\*---------------------------------------------------------------------------*/
FoamFile
{
    version     2.0;
    format      ascii;
    class       volScalarField;
    object      p;
}
// * * * * * * * * * * * * * * * * * * * * * * * * * * * * * * * * * * * * * //

dimensions      [1 -1 -2 0 0 0 0];

internalField   uniform 100000;

boundaryField
{
    Zmin
    {
        type            calculated;
        value           $internalField;
    }

    Zmax
    {
        type            calculated;
        value           $internalField;
    }

    "(Xmin|Xmax|Ymin|Ymax)"
    {
        // type            calculated;
        // value           $internalField;
               type symmetry;

    }

    ball
    {
        type            calculated;
        value           $internalField;
    }
}


// ************************************************************************* //
