/*--------------------------------*- C++ -*----------------------------------*\
| =========                 |                                                 |
| \\      /  F ield         | OpenFOAM: The Open Source CFD Toolbox           |
|  \\    /   O peration     | Version:  v2306                                 |
|   \\  /    A nd           | Website:  www.openfoam.com                      |
|    \\/     M anipulation  |                                                 |
\*---------------------------------------------------------------------------*/
FoamFile
{
    version     2.0;
    format      ascii;
    class       volScalarField;
    object      alphat;
}
// * * * * * * * * * * * * * * * * * * * * * * * * * * * * * * * * * * * * * //

dimensions      [1 -1 -1 0 0 0 0];

internalField   uniform 0;

boundaryField
{
    Zmin
    {
        type            compressible::alphatWallFunction;
        value           uniform 0;
    }

    Zmax
    {
        // type            compressible::alphatWallFunction;
        // value           uniform 0;
        // type                calculated;
        // value               $internalField;
                type            symmetry;

    }

    "(Xmin|Xmax|Ymin|Ymax)"
    {
        // type            compressible::alphatWallFunction;
        // value           uniform 0;
               type symmetry;

    }

    ball
    {
        type            compressible::alphatWallFunction;
        value           uniform 0;
    }
}


// ************************************************************************* //
